Version 4.1
SHEET 1 1676 680
WIRE 976 -144 752 -144
WIRE 1200 -144 976 -144
WIRE 1600 -144 1200 -144
WIRE 752 -64 752 -144
WIRE 976 -64 976 -144
WIRE 1200 -64 1200 -144
WIRE 1200 64 1200 0
WIRE 752 80 752 0
WIRE 976 80 976 0
WIRE 1600 80 1600 -144
WIRE -144 128 -144 48
WIRE 752 144 752 80
WIRE 976 144 976 80
WIRE 1200 144 1200 64
WIRE -48 288 -48 192
WIRE 752 336 752 208
WIRE 976 336 976 208
WIRE 976 336 752 336
WIRE 1200 336 1200 208
WIRE 1200 336 976 336
WIRE 1600 336 1600 160
WIRE 1600 336 1200 336
WIRE 976 384 976 336
WIRE 112 448 112 336
FLAG -144 208 0
FLAG -48 368 0
FLAG 112 528 0
FLAG -144 48 VR
FLAG 752 80 VR
FLAG -48 192 VS
FLAG 976 80 VS
FLAG 112 336 VT
FLAG 1200 64 VT
FLAG 976 384 0
FLAG 400 0 0
FLAG 400 -80 g
FLAG 704 -64 g
FLAG 928 -64 g
FLAG 1152 -64 g
SYMBOL voltage -48 272 R0
WINDOW 3 -373 67 Left 2
WINDOW 123 0 0 Left 0
WINDOW 39 0 0 Left 0
SYMATTR InstName VS
SYMATTR Value SINE(0 310 50 0 0 120)
SYMBOL voltage -144 112 R0
WINDOW 3 -260 67 Left 2
WINDOW 123 0 0 Left 0
WINDOW 39 0 0 Left 0
SYMATTR InstName VR
SYMATTR Value SINE(0 310 50)
SYMBOL voltage 112 432 R0
WINDOW 123 0 0 Left 0
WINDOW 39 0 0 Left 0
SYMATTR InstName VT
SYMATTR Value SINE(0 310 50 0 0 -120)
SYMBOL res 1584 64 R0
SYMATTR InstName R1
SYMATTR Value 10k
SYMBOL diode 768 208 R180
WINDOW 0 24 64 Left 2
WINDOW 3 24 0 Left 2
SYMATTR InstName D4
SYMATTR Value 1N914
SYMBOL diode 992 208 R180
WINDOW 0 24 64 Left 2
WINDOW 3 24 0 Left 2
SYMATTR InstName D5
SYMATTR Value 1N914
SYMBOL diode 1216 208 R180
WINDOW 0 24 64 Left 2
WINDOW 3 24 0 Left 2
SYMATTR InstName D6
SYMATTR Value 1N914
SYMBOL Misc\\SCR 736 0 M180
SYMATTR InstName U1
SYMBOL Misc\\SCR 960 0 M180
SYMATTR InstName U2
SYMBOL Misc\\SCR 1184 0 M180
SYMATTR InstName U3
SYMBOL voltage 400 -96 R0
WINDOW 123 0 0 Left 0
WINDOW 39 0 0 Left 0
SYMATTR InstName V1
SYMATTR Value SINE(0 1 50)
TEXT 696 -232 Left 2 !.tran 0 1 0 0.01
