Version 4.1
SHEET 1 1748 792
WIRE 16 -192 -432 -192
WIRE 384 -192 16 -192
WIRE 560 -192 384 -192
WIRE 944 -192 560 -192
WIRE 1264 -192 944 -192
WIRE 384 -144 384 -192
WIRE 400 -144 384 -144
WIRE 560 -144 560 -192
WIRE 480 -96 464 -96
WIRE 496 -96 480 -96
WIRE 16 -80 16 -192
WIRE 400 -48 384 -48
WIRE 592 -48 560 -48
WIRE 1264 -48 1264 -192
WIRE 1216 -32 1008 -32
WIRE -432 -16 -432 -192
WIRE 480 0 480 -96
WIRE 592 0 592 -48
WIRE 592 0 480 0
WIRE 384 16 384 -48
WIRE 1312 48 1264 48
WIRE 384 112 384 16
WIRE 592 112 592 0
WIRE -432 144 -432 64
WIRE 16 160 16 0
WIRE 128 160 16 160
WIRE 320 160 128 160
WIRE 912 160 656 160
WIRE 1040 160 912 160
WIRE 1312 160 1312 48
WIRE 1312 160 1120 160
WIRE 1312 240 1312 160
WIRE 16 256 16 160
WIRE 912 272 912 160
WIRE 384 336 384 208
WIRE 464 336 384 336
WIRE 592 336 592 208
WIRE 592 336 464 336
WIRE 256 592 256 512
WIRE 336 592 256 592
WIRE 256 608 256 592
WIRE 464 608 464 336
WIRE 336 656 336 592
WIRE 336 656 320 656
WIRE 400 656 336 656
WIRE 256 768 256 704
WIRE 464 768 464 704
WIRE 464 768 256 768
FLAG 16 320 0
FLAG -432 224 0
FLAG 1312 320 0
FLAG 912 352 0
FLAG 944 -192 Vcc
FLAG 1008 -32 VG
FLAG 256 768 0
FLAG 128 160 Vref
FLAG 256 432 Vref
FLAG 1312 160 Vo
FLAG 384 16 VG
DATAFLAG 1296 160 ""
DATAFLAG 880 160 ""
SYMBOL npn 320 112 R0
SYMATTR InstName Q1
SYMATTR Value 2N3904
SYMBOL npn 656 112 M0
SYMATTR InstName Q2
SYMATTR Value 2N3904
SYMBOL pnp 464 -48 R180
SYMATTR InstName Q3
SYMATTR Value 2N3906
SYMBOL pnp 496 -48 M180
SYMATTR InstName Q4
SYMATTR Value 2N3906
SYMBOL res 0 -96 R0
SYMATTR InstName Rz
SYMATTR Value 100
SYMBOL zener 32 320 R180
WINDOW 0 24 64 Left 2
WINDOW 3 24 0 Left 2
SYMATTR InstName D1
SYMATTR Value 1N750
SYMBOL voltage -432 -32 R0
WINDOW 123 24 130 Left 2
WINDOW 39 0 0 Left 0
SYMATTR Value2 AC 1
SYMATTR InstName V1
SYMATTR Value SINE(0 0.2 100k)
SYMBOL voltage -432 128 R0
WINDOW 123 24 130 Left 2
WINDOW 39 0 0 Left 0
SYMATTR Value2 AC 1
SYMATTR InstName V2
SYMATTR Value 9.5
SYMBOL res 896 256 R0
SYMATTR InstName R3
SYMATTR Value 100k
SYMBOL res 1136 144 R90
WINDOW 0 -8 50 VBottom 2
WINDOW 3 32 56 VTop 2
SYMATTR InstName R4
SYMATTR Value 4.7k
SYMBOL res 1328 336 R180
WINDOW 0 36 76 Left 2
WINDOW 3 36 40 Left 2
SYMATTR InstName RL
SYMATTR Value 10k
SYMBOL npn 400 608 R0
SYMATTR InstName Q5
SYMATTR Value 2N3904
SYMBOL npn 320 608 M0
SYMATTR InstName Q6
SYMATTR Value 2N3904
SYMBOL res 240 416 R0
SYMATTR InstName R1
SYMATTR Value 1k
SYMBOL pmos 1216 48 M180
SYMATTR InstName M2
SYMATTR Value RRS140P03
TEXT -768 192 Left 2 !.dc V2 0 24 0.1
