Version 4.1
SHEET 1 2536 1128
WIRE -1040 -368 -1184 -368
WIRE -816 -368 -960 -368
WIRE -592 -368 -736 -368
WIRE 368 -288 352 -288
WIRE 560 -288 368 -288
WIRE -1184 -240 -1184 -368
WIRE 352 -192 352 -288
WIRE 560 -192 560 -288
WIRE 448 -144 416 -144
WIRE 496 -144 448 -144
WIRE 1280 -80 1280 -224
WIRE 1232 -64 1024 -64
WIRE 448 -32 448 -144
WIRE 560 -32 560 -96
WIRE 560 -32 448 -32
WIRE 352 -16 352 -96
WIRE -832 80 -880 80
WIRE 352 80 352 -16
WIRE 560 80 560 -32
WIRE -880 96 -880 80
WIRE 288 128 96 128
WIRE 880 128 624 128
WIRE 1008 128 880 128
WIRE 1280 128 1280 16
WIRE 1280 128 1088 128
WIRE -880 144 -880 96
WIRE -880 144 -1200 144
WIRE -1200 160 -1200 144
WIRE 1280 208 1280 128
WIRE -880 240 -880 144
WIRE 880 240 880 128
WIRE -1200 272 -1200 240
WIRE -912 272 -1200 272
WIRE 352 304 352 176
WIRE 448 304 352 304
WIRE 560 304 560 176
WIRE 560 304 448 304
WIRE -1200 336 -1200 272
WIRE 128 368 -176 368
WIRE -1200 448 -1200 416
WIRE -880 448 -880 304
WIRE 128 448 128 368
WIRE 128 560 128 528
WIRE 256 560 128 560
WIRE 128 608 128 560
WIRE 448 608 448 304
WIRE 256 656 256 560
WIRE 256 656 192 656
WIRE 384 656 256 656
WIRE 128 768 128 704
WIRE 448 768 448 704
WIRE 448 768 128 768
WIRE 128 816 128 768
FLAG -1184 -240 0
FLAG 880 320 0
FLAG 1280 -224 Vcc
FLAG 1024 -64 VG
FLAG 128 816 0
FLAG 1280 128 Vo
FLAG 352 -16 VG
FLAG -592 -368 Vcc
FLAG 96 128 VRef1
FLAG 368 -288 Vcc
FLAG -1200 448 0
FLAG -880 448 0
FLAG -880 96 VRef1
FLAG -752 80 Vcc
FLAG -176 368 Vcc
FLAG 1280 288 0
DATAFLAG 1184 128 ""
DATAFLAG 176 128 ""
DATAFLAG 448 304 ""
DATAFLAG 496 -288 ""
DATAFLAG 1120 -64 ""
DATAFLAG 1280 -160 ""
DATAFLAG 560 -16 ""
DATAFLAG -1104 144 ""
DATAFLAG -1072 272 ""
DATAFLAG 800 128 ""
DATAFLAG 96 368 ""
DATAFLAG 288 656 ""
SYMBOL npn 288 80 R0
SYMATTR InstName Q1
SYMATTR Value 2N3904
SYMBOL npn 624 80 M0
SYMATTR InstName Q2
SYMATTR Value 2N3904
SYMBOL pnp 416 -96 R180
SYMATTR InstName Q3
SYMATTR Value 2N3906
SYMBOL pnp 496 -96 M180
SYMATTR InstName Q4
SYMATTR Value 2N3906
SYMBOL voltage -720 -368 R90
WINDOW 123 40 88 VRight 2
WINDOW 39 0 0 Left 0
WINDOW 0 42 -2 VRight 2
WINDOW 3 99 -67 VRight 2
SYMATTR Value2 AC 1
SYMATTR InstName V1
SYMATTR Value SINE(0 0.2 100k)
SYMBOL voltage -944 -368 R90
WINDOW 123 82 16 VRight 2
WINDOW 39 0 0 Left 0
WINDOW 0 42 -2 VRight 2
WINDOW 3 -19 104 VRight 2
SYMATTR Value2 AC {Vin_ac}
SYMATTR InstName V2
SYMATTR Value {Vin_dc}
SYMBOL res 864 224 R0
SYMATTR InstName R3
SYMATTR Value 1k
SYMBOL res 1104 112 R90
WINDOW 0 -8 50 VBottom 2
WINDOW 3 32 56 VTop 2
SYMATTR InstName R4
SYMATTR Value 1k
SYMBOL npn 384 608 R0
SYMATTR InstName Q5
SYMATTR Value 2N3904
SYMBOL npn 192 608 M0
SYMATTR InstName Q6
SYMATTR Value 2N3904
SYMBOL res 112 432 R0
SYMATTR InstName R1
SYMATTR Value 1k
SYMBOL pmos 1232 16 M180
SYMATTR InstName M1
SYMATTR Value irf4905
SYMATTR Prefix X
SYMBOL TL431 -880 272 M0
SYMATTR InstName U1
SYMBOL res -1216 320 R0
SYMATTR InstName R66
SYMATTR Value 1000k
SYMBOL res -1216 144 R0
SYMATTR InstName R5
SYMATTR Value 1k
SYMBOL res -736 64 R90
WINDOW 0 0 56 VBottom 2
WINDOW 3 32 56 VTop 2
SYMATTR InstName R6
SYMATTR Value 220
SYMBOL current 1280 208 R0
SYMATTR InstName IRL
SYMATTR Value {IRL}
TEXT -1240 -616 Left 2 ;Alimentación Recibida, sin estabiizar.
TEXT -1216 -568 Left 2 ;9.5 V con variacion de 0.2 V\nFrecuencia 100kHz
TEXT -1224 -24 Left 2 ;Vref: Implementacion mediante TL341
TEXT -1208 656 Left 2 !.include Modelos/irf4905.spi
TEXT -1232 560 Left 2 ;Modelos Agregados
TEXT -808 -424 Left 2 ;ruido
TEXT -1024 -416 Left 2 ;9.5 V
TEXT -392 -624 Left 2 ;Implementación: Fuente de regulación de tensión mediante amplificador operacional y transistor MOS de paso.
TEXT -1200 704 Left 2 !.include Modelos/TL431.spi
TEXT 1624 72 Left 2 ;.dc IRL 0 2 0.3\n \n.param Vin1_rl=10\n.param Vin2_rl=20\n \n.meas DC Vo1_rl FIND V(Vo) AT={Vin1_rl}\n.meas DC Vo2_rl FIND V(Vo) AT={Vin2_rl}\n \n.meas DC RegLine PARAM (Vo2_rl - Vo1_rl)/(Vin2_rl - Vin1_rl)
TEXT 1632 -624 Left 2 ;Mido Regulacion de Linea
TEXT 1640 -32 Left 2 ;Mido Regulacion de Carga
TEXT 1648 584 Left 2 ;Mido la Eficiencia\n-100*((V(vo)*I(IRL))/(V(Vcc)*I(V2)))
TEXT 1632 776 Left 2 ;Parametros
TEXT 1632 840 Left 2 !.param Vin_dc 9.5\n.param Vin_ac 1\n.param RL 5\n.param IRL 1
TEXT 1624 -496 Left 2 !.dc V2 0 24 0.3\n \n.param Vin1_rl=10\n.param Vin2_rl=20\n \n.meas DC Vo1_rl FIND V(Vo) AT={Vin1_rl}\n.meas DC Vo2_rl FIND V(Vo) AT={Vin2_rl}\n \n.meas DC RegLine PARAM (Vo2_rl - Vo1_rl)/(Vin2_rl - Vin1_rl)
RECTANGLE Normal -448 -96 -1264 -656 2
RECTANGLE Normal -448 496 -1264 -64 2
RECTANGLE Normal -448 1088 -1264 528 2
RECTANGLE Normal 1584 1088 -416 -656 2
RECTANGLE Normal 2464 -80 1600 -656 2
RECTANGLE Normal 2464 512 1600 -64 2
RECTANGLE Normal 2464 704 1600 528 2
RECTANGLE Normal 2464 1088 1600 736 2
