Version 4.1
SHEET 1 2376 1128
WIRE -1040 -368 -1184 -368
WIRE -816 -368 -960 -368
WIRE -592 -368 -736 -368
WIRE 448 -288 352 -288
WIRE 560 -288 448 -288
WIRE -1184 -240 -1184 -368
WIRE 352 -192 352 -288
WIRE 560 -192 560 -288
WIRE 448 -144 416 -144
WIRE 496 -144 448 -144
WIRE 1280 -80 1280 -224
WIRE 1232 -64 1024 -64
WIRE 448 -32 448 -144
WIRE 560 -32 560 -96
WIRE 560 -32 448 -32
WIRE 352 -16 352 -96
WIRE 352 80 352 -16
WIRE 560 80 560 -32
WIRE -1072 112 -1072 80
WIRE -800 128 -800 112
WIRE 288 128 96 128
WIRE 880 128 624 128
WIRE 1008 128 880 128
WIRE 1280 128 1280 16
WIRE 1280 128 1088 128
WIRE -1072 144 -1072 112
WIRE -800 160 -800 128
WIRE 1280 208 1280 128
WIRE 880 240 880 128
WIRE 352 304 352 176
WIRE 448 304 352 304
WIRE 560 304 560 176
WIRE 560 304 448 304
WIRE 240 368 -16 368
WIRE 240 432 240 368
WIRE 240 592 240 512
WIRE 320 592 240 592
WIRE -1472 608 -1472 496
WIRE 240 608 240 592
WIRE 448 608 448 304
WIRE 320 656 320 592
WIRE 320 656 304 656
WIRE 384 656 320 656
WIRE -1472 736 -1472 688
WIRE -1472 736 -1856 736
WIRE -1856 752 -1856 736
WIRE 240 768 240 704
WIRE 448 768 448 704
WIRE 448 768 240 768
WIRE -1472 880 -1472 736
WIRE -1856 912 -1856 832
WIRE -1504 912 -1856 912
WIRE -1856 976 -1856 912
WIRE -1856 1088 -1856 1056
WIRE -1472 1088 -1472 944
FLAG -1184 -240 0
FLAG 1280 288 0
FLAG 880 320 0
FLAG 1280 -224 Vcc
FLAG 1024 -64 VG
FLAG 240 768 0
FLAG -16 368 VRef2
FLAG 1280 128 Vo
FLAG 352 -16 VG
FLAG -592 -368 Vcc
FLAG -1072 224 0
FLAG 96 128 VRef1
FLAG -800 240 0
FLAG -800 128 VRef2
FLAG -1072 112 VRef1
FLAG 448 -288 Vcc
FLAG -1856 1088 0
FLAG -1472 1088 0
FLAG -1472 496 Vcc
DATAFLAG 1264 128 ""
DATAFLAG 848 128 ""
DATAFLAG 176 128 ""
DATAFLAG 144 368 ""
DATAFLAG 272 592 ""
DATAFLAG 448 304 ""
DATAFLAG 496 -288 ""
DATAFLAG 1088 -64 ""
DATAFLAG 1280 -160 ""
DATAFLAG 560 -16 ""
DATAFLAG -1472 576 ""
DATAFLAG -1696 736 ""
DATAFLAG -1744 912 ""
SYMBOL npn 288 80 R0
SYMATTR InstName Q1
SYMATTR Value 2N3904
SYMBOL npn 624 80 M0
SYMATTR InstName Q2
SYMATTR Value 2N3904
SYMBOL pnp 416 -96 R180
SYMATTR InstName Q3
SYMATTR Value 2N3906
SYMBOL pnp 496 -96 M180
SYMATTR InstName Q4
SYMATTR Value 2N3906
SYMBOL voltage -720 -368 R90
WINDOW 123 40 88 VRight 2
WINDOW 39 0 0 Left 0
WINDOW 0 42 -2 VRight 2
WINDOW 3 99 -67 VRight 2
SYMATTR Value2 AC 1
SYMATTR InstName V1
SYMATTR Value SINE(0 0.2 100k)
SYMBOL voltage -944 -368 R90
WINDOW 123 39 85 VRight 2
WINDOW 39 0 0 Left 0
WINDOW 0 42 -2 VRight 2
WINDOW 3 93 48 VRight 2
SYMATTR Value2 AC 1
SYMATTR InstName V2
SYMATTR Value 9.5
SYMBOL res 864 224 R0
SYMATTR InstName R3
SYMATTR Value 1k
SYMBOL res 1104 112 R90
WINDOW 0 -8 50 VBottom 2
WINDOW 3 32 56 VTop 2
SYMATTR InstName R4
SYMATTR Value 1k
SYMBOL res 1296 304 R180
WINDOW 0 36 76 Left 2
WINDOW 3 36 40 Left 2
SYMATTR InstName RL
SYMATTR Value 10k
SYMBOL npn 384 608 R0
SYMATTR InstName Q5
SYMATTR Value 2N3904
SYMBOL npn 304 608 M0
SYMATTR InstName Q6
SYMATTR Value 2N3904
SYMBOL res 224 416 R0
SYMATTR InstName R1
SYMATTR Value 1k
SYMBOL voltage -1072 128 R0
WINDOW 123 24 130 Left 2
WINDOW 39 0 0 Left 0
WINDOW 0 1 -49 Left 2
SYMATTR InstName VRef1
SYMATTR Value 2.5
SYMBOL voltage -800 144 R0
WINDOW 123 24 130 Left 2
WINDOW 39 0 0 Left 0
WINDOW 0 1 -31 Left 2
SYMATTR InstName VRef2
SYMATTR Value 9.5
SYMBOL pmos 1232 16 M180
SYMATTR InstName M1
SYMATTR Value irf4905
SYMATTR Prefix X
SYMBOL TL431 -1472 912 M0
SYMATTR InstName U1
SYMBOL res -1872 960 R0
SYMATTR InstName R66
SYMATTR Value 33k
SYMBOL res -1872 736 R0
SYMATTR InstName R5
SYMATTR Value 10k
SYMBOL res -1488 592 R0
SYMATTR InstName R6
SYMATTR Value 220
TEXT -1240 -616 Left 2 ;Alimentación Recibida, sin estabiizar.
TEXT -1216 -568 Left 2 ;9.5 V con variacion de 0.2 V\nFrecuencia 100kHz
TEXT -1224 -24 Left 2 ;Vref: Implementacion mediante TL341
TEXT 160 -368 Left 2 !.tran 0 1 0 0.001
TEXT -1208 656 Left 2 !.include Modelos/irf4905.spi
TEXT -1232 560 Left 2 ;Modelos Agregados
TEXT -808 -424 Left 2 ;ruido
TEXT -1024 -416 Left 2 ;9.5 V
TEXT -392 -624 Left 2 ;Implementación: Fuente de regulación de tensión mediante amplificador operacional y transistor MOS de paso.
TEXT -1200 704 Left 2 !.include Modelos/TL431.spi
RECTANGLE Normal -448 -96 -1264 -656 2
RECTANGLE Normal -448 496 -1264 -64 2
RECTANGLE Normal -448 1088 -1264 528 2
RECTANGLE Normal 1584 1088 -416 -656 2
