Version 4.1
SHEET 1 1748 968
WIRE 512 -624 416 -624
WIRE 624 -624 512 -624
WIRE -720 -528 -720 -576
WIRE 416 -528 416 -624
WIRE 624 -528 624 -624
WIRE 512 -480 480 -480
WIRE 560 -480 512 -480
WIRE 1344 -416 1344 -560
WIRE 1296 -400 1088 -400
WIRE 512 -368 512 -480
WIRE 624 -368 624 -432
WIRE 624 -368 512 -368
WIRE 416 -352 416 -432
WIRE -720 -288 -720 -448
WIRE 416 -256 416 -352
WIRE 624 -256 624 -368
WIRE 352 -208 160 -208
WIRE 944 -208 688 -208
WIRE 1072 -208 944 -208
WIRE 1344 -208 1344 -320
WIRE 1344 -208 1152 -208
WIRE -720 -128 -720 -208
WIRE 1344 -128 1344 -208
WIRE 944 -96 944 -208
WIRE 416 -32 416 -160
WIRE 512 -32 416 -32
WIRE 624 -32 624 -160
WIRE 624 -32 512 -32
WIRE 304 32 48 32
WIRE 304 96 304 32
WIRE -1072 112 -1072 80
WIRE -800 128 -800 112
WIRE -1072 144 -1072 112
WIRE -800 160 -800 128
WIRE 304 256 304 176
WIRE 384 256 304 256
WIRE 304 272 304 256
WIRE 512 272 512 -32
WIRE 384 320 384 256
WIRE 384 320 368 320
WIRE 448 320 384 320
WIRE 304 432 304 368
WIRE 512 432 512 368
WIRE 512 432 304 432
FLAG -720 -128 0
FLAG 1344 -48 0
FLAG 944 -16 0
FLAG 1344 -560 Vcc
FLAG 1088 -400 VG
FLAG 304 432 0
FLAG 48 32 VRef2
FLAG 1344 -208 Vo
FLAG 416 -352 VG
FLAG -720 -576 Vcc
FLAG -1072 224 0
FLAG 160 -208 VRef1
FLAG -800 240 0
FLAG -800 128 VRef2
FLAG -1072 112 VRef1
FLAG 512 -624 Vcc
DATAFLAG 1328 -208 ""
DATAFLAG 912 -208 ""
DATAFLAG 240 -208 ""
DATAFLAG 208 32 ""
DATAFLAG 336 256 ""
DATAFLAG 512 -32 ""
DATAFLAG 560 -624 ""
DATAFLAG 1152 -400 ""
DATAFLAG 1344 -496 ""
DATAFLAG 624 -352 ""
SYMBOL npn 352 -256 R0
SYMATTR InstName Q1
SYMATTR Value 2N3904
SYMBOL npn 688 -256 M0
SYMATTR InstName Q2
SYMATTR Value 2N3904
SYMBOL pnp 480 -432 R180
SYMATTR InstName Q3
SYMATTR Value 2N3906
SYMBOL pnp 560 -432 M180
SYMATTR InstName Q4
SYMATTR Value 2N3906
SYMBOL voltage -720 -544 R0
WINDOW 123 24 130 Left 2
WINDOW 39 0 0 Left 0
SYMATTR Value2 AC 1
SYMATTR InstName V1
SYMATTR Value SINE(0 0.2 100k)
SYMBOL voltage -720 -304 R0
WINDOW 123 24 130 Left 2
WINDOW 39 0 0 Left 0
SYMATTR Value2 AC 1
SYMATTR InstName V2
SYMATTR Value 9.5
SYMBOL res 928 -112 R0
SYMATTR InstName R3
SYMATTR Value 1k
SYMBOL res 1168 -224 R90
WINDOW 0 -8 50 VBottom 2
WINDOW 3 32 56 VTop 2
SYMATTR InstName R4
SYMATTR Value 1k
SYMBOL res 1360 -32 R180
WINDOW 0 36 76 Left 2
WINDOW 3 36 40 Left 2
SYMATTR InstName RL
SYMATTR Value 10k
SYMBOL npn 448 272 R0
SYMATTR InstName Q5
SYMATTR Value 2N3904
SYMBOL npn 368 272 M0
SYMATTR InstName Q6
SYMATTR Value 2N3904
SYMBOL res 288 80 R0
SYMATTR InstName R1
SYMATTR Value 1k
SYMBOL pmos 1296 -320 M180
SYMATTR InstName M2
SYMATTR Value RRS140P03
SYMBOL voltage -1072 128 R0
WINDOW 123 24 130 Left 2
WINDOW 39 0 0 Left 0
WINDOW 0 1 -49 Left 2
SYMATTR InstName VRef1
SYMATTR Value 2.5
SYMBOL voltage -800 144 R0
WINDOW 123 24 130 Left 2
WINDOW 39 0 0 Left 0
WINDOW 0 1 -31 Left 2
SYMATTR InstName VRef2
SYMATTR Value 9.5
TEXT -1248 -680 Left 2 ;Alimentaci¾n Recibida, sin estabiizar.
TEXT -1216 -568 Left 2 ;9.5 V con variacion de 0.2 V
TEXT -1224 -24 Left 2 ;Vref: Implementacion mediante TL341
TEXT 224 -704 Left 2 !.tran 0 1 0 0.001
RECTANGLE Normal -448 -96 -1264 -656 2
RECTANGLE Normal -448 496 -1264 -64 2
